Geom Title=New Geometry
Program Version=6.30
Viewing Rectangle= 263951.500002837 , 264512.499995758 , 664828.899968981 , 664391.100003833 

Storage Area=Perimeter 1     ,264232.0166995,664609.9836562
Storage Area Surface Line= 5 
264486.999966616664808.999970565                
 264486.99999608664411.000003095                
263977.000002515664411.000002248                
263977.039998362664808.952190447                
264486.999966616664808.999970565                
Storage Area Type= 1 
Storage Area Area=
Storage Area Min Elev=
Storage Area Is2D=-1
Storage Area Point Generation Data=,,2,2
Storage Area 2D Points= 50745 
263978.000002515664807.999970565263980.000002515664807.999970565
263982.000002515664807.999970565263984.000002515664807.999970565
263986.000002515664807.999970565263988.000002515664807.999970565
263990.000002515664807.999970565263992.000002515664807.999970565
263994.000002515664807.999970565263996.000002515664807.999970565
263998.000002515664807.999970565264000.000002515664807.999970565
264002.000002515664807.999970565264004.000002515664807.999970565
264006.000002515664807.999970565264008.000002515664807.999970565
264010.000002515664807.999970565264012.000002515664807.999970565
264014.000002515664807.999970565264016.000002515664807.999970565
264018.000002515664807.999970565264020.000002515664807.999970565
264022.000002515664807.999970565264024.000002515664807.999970565
264026.000002515664807.999970565264028.000002515664807.999970565
264030.000002515664807.999970565264032.000002515664807.999970565
264034.000002515664807.999970565264036.000002515664807.999970565
264038.000002515664807.999970565264040.000002515664807.999970565
264042.000002515664807.999970565264044.000002515664807.999970565
264046.000002515664807.999970565264048.000002515664807.999970565
264050.000002515664807.999970565264052.000002515664807.999970565
264054.000002515664807.999970565264056.000002515664807.999970565
264058.000002515664807.999970565264060.000002515664807.999970565
264062.000002515664807.999970565264064.000002515664807.999970565
264066.000002515664807.999970565264068.000002515664807.999970565
264070.000002515664807.999970565264072.000002515664807.999970565
264074.000002515664807.999970565264076.000002515664807.999970565
264078.000002515664807.999970565264080.000002515664807.999970565
264082.000002515664807.999970565264084.000002515664807.999970565
264086.000002515664807.999970565264088.000002515664807.999970565
264090.000002515664807.999970565264092.000002515664807.999970565
264094.000002515664807.999970565264096.000002515664807.999970565
264098.000002515664807.999970565264100.000002515664807.999970565
264102.000002515664807.999970565264104.000002515664807.999970565
264106.000002515664807.999970565264108.000002515664807.999970565
264110.000002515664807.999970565264112.000002515664807.999970565
264114.000002515664807.999970565264116.000002515664807.999970565
264118.000002515664807.999970565264120.000002515664807.999970565
264122.000002515664807.999970565264124.000002515664807.999970565
264126.000002515664807.999970565264128.000002515664807.999970565
264130.000002515664807.999970565264132.000002515664807.999970565
264134.000002515664807.999970565264136.000002515664807.999970565
264138.000002515664807.999970565264140.000002515664807.999970565
264142.000002515664807.999970565264144.000002515664807.999970565
264146.000002515664807.999970565264148.000002515664807.999970565
264150.000002515664807.999970565264152.000002515664807.999970565
264154.000002515664807.999970565264156.000002515664807.999970565
264158.000002515664807.999970565264160.000002515664807.999970565
264162.000002515664807.999970565264164.000002515664807.999970565
264166.000002515664807.999970565264168.000002515664807.999970565
264170.000002515664807.999970565264172.000002515664807.999970565
264174.000002515664807.999970565264176.000002515664807.999970565
264178.000002515664807.999970565264180.000002515664807.999970565
264182.000002515664807.999970565264184.000002515664807.999970565
264186.000002515664807.999970565264188.000002515664807.999970565
264190.000002515664807.999970565264192.000002515664807.999970565
264194.000002515664807.999970565264196.000002515664807.999970565
264198.000002515664807.999970565264200.000002515664807.999970565
264202.000002515664807.999970565264204.000002515664807.999970565
264206.000002515664807.999970565264208.000002515664807.999970565
264210.000002515664807.999970565264212.000002515664807.999970565
264214.000002515664807.999970565264216.000002515664807.999970565
264218.000002515664807.999970565264220.000002515664807.999970565
264222.000002515664807.999970565264224.000002515664807.999970565
264226.000002515664807.999970565264228.000002515664807.999970565
264230.000002515664807.999970565264232.000002515664807.999970565
264234.000002515664807.999970565264236.000002515664807.999970565
264238.000002515664807.999970565264240.000002515664807.999970565
264242.000002515664807.999970565264244.000002515664807.999970565
264246.000002515664807.999970565264248.000002515664807.999970565
264250.000002515664807.999970565264252.000002515664807.999970565
264254.000002515664807.999970565264256.000002515664807.999970565
264258.000002515664807.999970565264260.000002515664807.999970565
264262.000002515664807.999970565264264.000002515664807.999970565
264266.000002515664807.999970565264268.000002515664807.999970565
264270.000002515664807.999970565264272.000002515664807.999970565
264274.000002515664807.999970565264276.000002515664807.999970565
264278.000002515664807.999970565264280.000002515664807.999970565
264282.000002515664807.999970565264284.000002515664807.999970565
264286.000002515664807.999970565264288.000002515664807.999970565
264290.000002515664807.999970565264292.000002515664807.999970565
264294.000002515664807.999970565264296.000002515664807.999970565
264298.000002515664807.999970565264300.000002515664807.999970565
264302.000002515664807.999970565264304.000002515664807.999970565
264306.000002515664807.999970565264308.000002515664807.999970565
264310.000002515664807.999970565264312.000002515664807.999970565
264314.000002515664807.999970565264316.000002515664807.999970565
264318.000002515664807.999970565264320.000002515664807.999970565
264322.000002515664807.999970565264324.000002515664807.999970565
264326.000002515664807.999970565264328.000002515664807.999970565
264330.000002515664807.999970565264332.000002515664807.999970565
264334.000002515664807.999970565264336.000002515664807.999970565
264338.000002515664807.999970565264340.000002515664807.999970565
264342.000002515664807.999970565264344.000002515664807.999970565
264346.000002515664807.999970565264348.000002515664807.999970565
264350.000002515664807.999970565264352.000002515664807.999970565
264354.000002515664807.999970565264356.000002515664807.999970565
264358.000002515664807.999970565264360.000002515664807.999970565
264362.000002515664807.999970565264364.000002515664807.999970565
264366.000002515664807.999970565264368.000002515664807.999970565
264370.000002515664807.999970565264372.000002515664807.999970565
264374.000002515664807.999970565264376.000002515664807.999970565
264378.000002515664807.999970565264380.000002515664807.999970565
264382.000002515664807.999970565264384.000002515664807.999970565
264386.000002515664807.999970565264388.000002515664807.999970565
264390.000002515664807.999970565264392.000002515664807.999970565
264394.000002515664807.999970565264396.000002515664807.999970565
264398.000002515664807.999970565264400.000002515664807.999970565
264402.000002515664807.999970565264404.000002515664807.999970565
264406.000002515664807.999970565264408.000002515664807.999970565
264410.000002515664807.999970565264412.000002515664807.999970565
264414.000002515664807.999970565264416.000002515664807.999970565
264418.000002515664807.999970565264420.000002515664807.999970565
264422.000002515664807.999970565264424.000002515664807.999970565
264426.000002515664807.999970565264428.000002515664807.999970565
264430.000002515664807.999970565264432.000002515664807.999970565
264434.000002515664807.999970565264436.000002515664807.999970565
264438.000002515664807.999970565264440.000002515664807.999970565
264442.000002515664807.999970565264444.000002515664807.999970565
264446.000002515664807.999970565264448.000002515664807.999970565
264450.000002515664807.999970565264452.000002515664807.999970565
264454.000002515664807.999970565264456.000002515664807.999970565
264458.000002515664807.999970565264460.000002515664807.999970565
264462.000002515664807.999970565264464.000002515664807.999970565
264466.000002515664807.999970565264468.000002515664807.999970565
264470.000002515664807.999970565264472.000002515664807.999970565
264474.000002515664807.999970565264476.000002515664807.999970565
264478.000002515664807.999970565264480.000002515664807.999970565
264482.000002515664807.999970565264484.000002515664807.999970565
264486.000002515664807.999970565263978.000002515664805.999970565
263980.000002515664805.999970565263982.000002515664805.999970565
263984.000002515664805.999970565263986.000002515664805.999970565
263988.000002515664805.999970565263990.000002515664805.999970565
263992.000002515664805.999970565263994.000002515664805.999970565
263996.000002515664805.999970565263998.000002515664805.999970565
264000.000002515664805.999970565264002.000002515664805.999970565
264004.000002515664805.999970565264006.000002515664805.999970565
264008.000002515664805.999970565264010.000002515664805.999970565
264012.000002515664805.999970565264014.000002515664805.999970565
264016.000002515664805.999970565264018.000002515664805.999970565
264020.000002515664805.999970565264022.000002515664805.999970565
264024.000002515664805.999970565264026.000002515664805.999970565
264028.000002515664805.999970565264030.000002515664805.999970565
264032.000002515664805.999970565264034.000002515664805.999970565
264036.000002515664805.999970565264038.000002515664805.999970565
264040.000002515664805.999970565264042.000002515664805.999970565
264044.000002515664805.999970565264046.000002515664805.999970565
264048.000002515664805.999970565264050.000002515664805.999970565
264052.000002515664805.999970565264054.000002515664805.999970565
264056.000002515664805.999970565264058.000002515664805.999970565
264060.000002515664805.999970565264062.000002515664805.999970565
264064.000002515664805.999970565264066.000002515664805.999970565
264068.000002515664805.999970565264070.000002515664805.999970565
264072.000002515664805.999970565264074.000002515664805.999970565
264076.000002515664805.999970565264078.000002515664805.999970565
264080.000002515664805.999970565264082.000002515664805.999970565
264084.000002515664805.999970565264086.000002515664805.999970565
264088.000002515664805.999970565264090.000002515664805.999970565
264092.000002515664805.999970565264094.000002515664805.999970565
264096.000002515664805.999970565264098.000002515664805.999970565
264100.000002515664805.999970565264102.000002515664805.999970565
264104.000002515664805.999970565264106.000002515664805.999970565
264108.000002515664805.999970565264110.000002515664805.999970565
264112.000002515664805.999970565264114.000002515664805.999970565
264116.000002515664805.999970565264118.000002515664805.999970565
264120.000002515664805.999970565264122.000002515664805.999970565
264124.000002515664805.999970565264126.000002515664805.999970565
264128.000002515664805.999970565264130.000002515664805.999970565
264132.000002515664805.999970565264134.000002515664805.999970565
264136.000002515664805.999970565264138.000002515664805.999970565
264140.000002515664805.999970565264142.000002515664805.999970565
264144.000002515664805.999970565264146.000002515664805.999970565
264148.000002515664805.999970565264150.000002515664805.999970565
264152.000002515664805.999970565264154.000002515664805.999970565
264156.000002515664805.999970565264158.000002515664805.999970565
264160.000002515664805.999970565264162.000002515664805.999970565
264164.000002515664805.999970565264166.000002515664805.999970565
264168.000002515664805.999970565264170.000002515664805.999970565
264172.000002515664805.999970565264174.000002515664805.999970565
264176.000002515664805.999970565264178.000002515664805.999970565
264180.000002515664805.999970565264182.000002515664805.999970565
264184.000002515664805.999970565264186.000002515664805.999970565
264188.000002515664805.999970565264190.000002515664805.999970565
264192.000002515664805.999970565264194.000002515664805.999970565
264196.000002515664805.999970565264198.000002515664805.999970565
264200.000002515664805.999970565264202.000002515664805.999970565
264204.000002515664805.999970565264206.000002515664805.999970565
264208.000002515664805.999970565264210.000002515664805.999970565
264212.000002515664805.999970565264214.000002515664805.999970565
264216.000002515664805.999970565264218.000002515664805.999970565
264220.000002515664805.999970565264222.000002515664805.999970565
264224.000002515664805.999970565264226.000002515664805.999970565
264228.000002515664805.999970565264230.000002515664805.999970565
264232.000002515664805.999970565264234.000002515664805.999970565
264236.000002515664805.999970565264238.000002515664805.999970565
264240.000002515664805.999970565264242.000002515664805.999970565
264244.000002515664805.999970565264246.000002515664805.999970565
264248.000002515664805.999970565264250.000002515664805.999970565
264252.000002515664805.999970565264254.000002515664805.999970565
264256.000002515664805.999970565264258.000002515664805.999970565
264260.000002515664805.999970565264262.000002515664805.999970565
264264.000002515664805.999970565264266.000002515664805.999970565
264268.000002515664805.999970565264270.000002515664805.999970565
264272.000002515664805.999970565264274.000002515664805.999970565
264276.000002515664805.999970565264278.000002515664805.999970565
264280.000002515664805.999970565264282.000002515664805.999970565
264284.000002515664805.999970565264286.000002515664805.999970565
264288.000002515664805.999970565264290.000002515664805.999970565
264292.000002515664805.999970565264294.000002515664805.999970565
264296.000002515664805.999970565264298.000002515664805.999970565
264300.000002515664805.999970565264302.000002515664805.999970565
264304.000002515664805.999970565264306.000002515664805.999970565
264308.000002515664805.999970565264310.000002515664805.999970565
264312.000002515664805.999970565264314.000002515664805.999970565
264316.000002515664805.999970565264318.000002515664805.999970565
264320.000002515664805.999970565264322.000002515664805.999970565
264324.000002515664805.999970565264326.000002515664805.999970565
264328.000002515664805.999970565264330.000002515664805.999970565
264332.000002515664805.999970565264334.000002515664805.999970565
264336.000002515664805.999970565264338.000002515664805.999970565
264340.000002515664805.999970565264342.000002515664805.999970565
264344.000002515664805.999970565264346.000002515664805.999970565
264348.000002515664805.999970565264350.000002515664805.999970565
264352.000002515664805.999970565264354.000002515664805.999970565
264356.000002515664805.999970565264358.000002515664805.999970565
264360.000002515664805.999970565264362.000002515664805.999970565
264364.000002515664805.999970565264366.000002515664805.999970565
264368.000002515664805.999970565264370.000002515664805.999970565
264372.000002515664805.999970565264374.000002515664805.999970565
264376.000002515664805.999970565264378.000002515664805.999970565
264380.000002515664805.999970565264382.000002515664805.999970565
264384.000002515664805.999970565264386.000002515664805.999970565
264388.000002515664805.999970565264390.000002515664805.999970565
264392.000002515664805.999970565264394.000002515664805.999970565
264396.000002515664805.999970565264398.000002515664805.999970565
264400.000002515664805.999970565264402.000002515664805.999970565
264404.000002515664805.999970565264406.000002515664805.999970565
264408.000002515664805.999970565264410.000002515664805.999970565
264412.000002515664805.999970565264414.000002515664805.999970565
264416.000002515664805.999970565264418.000002515664805.999970565
264420.000002515664805.999970565264422.000002515664805.999970565
264424.000002515664805.999970565264426.000002515664805.999970565
264428.000002515664805.999970565264430.000002515664805.999970565
264432.000002515664805.999970565264434.000002515664805.999970565
264436.000002515664805.999970565264438.000002515664805.999970565
264440.000002515664805.999970565264442.000002515664805.999970565
264444.000002515664805.999970565264446.000002515664805.999970565
264448.000002515664805.999970565264450.000002515664805.999970565
264452.000002515664805.999970565264454.000002515664805.999970565
264456.000002515664805.999970565264458.000002515664805.999970565
264460.000002515664805.999970565264462.000002515664805.999970565
264464.000002515664805.999970565264466.000002515664805.999970565
264468.000002515664805.999970565264470.000002515664805.999970565
264472.000002515664805.999970565264474.000002515664805.999970565
264476.000002515664805.999970565264478.000002515664805.999970565
264480.000002515664805.999970565264482.000002515664805.999970565
264484.000002515664805.999970565264486.000002515664805.999970565
263978.000002515664803.999970565263980.000002515664803.999970565
263982.000002515664803.999970565263984.000002515664803.999970565
263986.000002515664803.999970565263988.000002515664803.999970565
263990.000002515664803.999970565263992.000002515664803.999970565
263994.000002515664803.999970565263996.000002515664803.999970565
263998.000002515664803.999970565264000.000002515664803.999970565
264002.000002515664803.999970565264004.000002515664803.999970565
264006.000002515664803.999970565264008.000002515664803.999970565
264010.000002515664803.999970565264012.000002515664803.999970565
264014.000002515664803.999970565264016.000002515664803.999970565
264018.000002515664803.999970565264020.000002515664803.999970565
264022.000002515664803.999970565264024.000002515664803.999970565
264026.000002515664803.999970565264028.000002515664803.999970565
264030.000002515664803.999970565264032.000002515664803.999970565
264034.000002515664803.999970565264036.000002515664803.999970565
264038.000002515664803.999970565264040.000002515664803.999970565
264042.000002515664803.999970565264044.000002515664803.999970565
264046.000002515664803.999970565264048.000002515664803.999970565
264050.000002515664803.999970565264052.000002515664803.999970565
264054.000002515664803.999970565264056.000002515664803.999970565
264058.000002515664803.999970565264060.000002515664803.999970565
264062.000002515664803.999970565264064.000002515664803.999970565
264066.000002515664803.999970565264068.000002515664803.999970565
264070.000002515664803.999970565264072.000002515664803.999970565
264074.000002515664803.999970565264076.000002515664803.999970565
264078.000002515664803.999970565264080.000002515664803.999970565
264082.000002515664803.999970565264084.000002515664803.999970565
264086.000002515664803.999970565264088.000002515664803.999970565
264090.000002515664803.999970565264092.000002515664803.999970565
264094.000002515664803.999970565264096.000002515664803.999970565
264098.000002515664803.999970565264100.000002515664803.999970565
264102.000002515664803.999970565264104.000002515664803.999970565
264106.000002515664803.999970565264108.000002515664803.999970565
264110.000002515664803.999970565264112.000002515664803.999970565
264114.000002515664803.999970565264116.000002515664803.999970565
264118.000002515664803.999970565264120.000002515664803.999970565
264122.000002515664803.999970565264124.000002515664803.999970565
264126.000002515664803.999970565264128.000002515664803.999970565
264130.000002515664803.999970565264132.000002515664803.999970565
264134.000002515664803.999970565264136.000002515664803.999970565
264138.000002515664803.999970565264140.000002515664803.999970565
264142.000002515664803.999970565264144.000002515664803.999970565
264146.000002515664803.999970565264148.000002515664803.999970565
264150.000002515664803.999970565264152.000002515664803.999970565
264154.000002515664803.999970565264156.000002515664803.999970565
264158.000002515664803.999970565264160.000002515664803.999970565
264162.000002515664803.999970565264164.000002515664803.999970565
264166.000002515664803.999970565264168.000002515664803.999970565
264170.000002515664803.999970565264172.000002515664803.999970565
264174.000002515664803.999970565264176.000002515664803.999970565
264178.000002515664803.999970565264180.000002515664803.999970565
264182.000002515664803.999970565264184.000002515664803.999970565
264186.000002515664803.999970565264188.000002515664803.999970565
264190.000002515664803.999970565264192.000002515664803.999970565
264194.000002515664803.999970565264196.000002515664803.999970565
264198.000002515664803.999970565264200.000002515664803.999970565
264202.000002515664803.999970565264204.000002515664803.999970565
264206.000002515664803.999970565264208.000002515664803.999970565
264210.000002515664803.999970565264212.000002515664803.999970565
264214.000002515664803.999970565264216.000002515664803.999970565
264218.000002515664803.999970565264220.000002515664803.999970565
264222.000002515664803.999970565264224.000002515664803.999970565
264226.000002515664803.999970565264228.000002515664803.999970565
264230.000002515664803.999970565264232.000002515664803.999970565
264234.000002515664803.999970565264236.000002515664803.999970565
264238.000002515664803.999970565264240.000002515664803.999970565
264242.000002515664803.999970565264244.000002515664803.999970565
264246.000002515664803.999970565264248.000002515664803.999970565
264250.000002515664803.999970565264252.000002515664803.999970565
264254.000002515664803.999970565264256.000002515664803.999970565
264258.000002515664803.999970565264260.000002515664803.999970565
264262.000002515664803.999970565264264.000002515664803.999970565
264266.000002515664803.999970565264268.000002515664803.999970565
264270.000002515664803.999970565264272.000002515664803.999970565
264274.000002515664803.999970565264276.000002515664803.999970565
264278.000002515664803.999970565264280.000002515664803.999970565
264282.000002515664803.999970565264284.000002515664803.999970565
264286.000002515664803.999970565264288.000002515664803.999970565
264290.000002515664803.999970565264292.000002515664803.999970565
264294.000002515664803.999970565264296.000002515664803.999970565
264298.000002515664803.999970565264300.000002515664803.999970565
264302.000002515664803.999970565264304.000002515664803.999970565
264306.000002515664803.999970565264308.000002515664803.999970565
264310.000002515664803.999970565264312.000002515664803.999970565
264314.000002515664803.999970565264316.000002515664803.999970565
264318.000002515664803.999970565264320.000002515664803.999970565
264322.000002515664803.999970565264324.000002515664803.999970565
264326.000002515664803.999970565264328.000002515664803.999970565
264330.000002515664803.999970565264332.000002515664803.999970565
264334.000002515664803.999970565264336.000002515664803.999970565
264338.000002515664803.999970565264340.000002515664803.999970565
264342.000002515664803.999970565264344.000002515664803.999970565
264346.000002515664803.999970565264348.000002515664803.999970565
264350.000002515664803.999970565264352.000002515664803.999970565
264354.000002515664803.999970565264356.000002515664803.999970565
264358.000002515664803.999970565264360.000002515664803.999970565
264362.000002515664803.999970565264364.000002515664803.999970565
264366.000002515664803.999970565264368.000002515664803.999970565
264370.000002515664803.999970565264372.000002515664803.999970565
264374.000002515664803.999970565264376.000002515664803.999970565
264378.000002515664803.999970565264380.000002515664803.999970565
264382.000002515664803.999970565264384.000002515664803.999970565
264386.000002515664803.999970565264388.000002515664803.999970565
264390.000002515664803.999970565264392.000002515664803.999970565
264394.000002515664803.999970565264396.000002515664803.999970565
264398.000002515664803.999970565264400.000002515664803.999970565
264402.000002515664803.999970565264404.000002515664803.999970565
264406.000002515664803.999970565264408.000002515664803.999970565
264410.000002515664803.999970565264412.000002515664803.999970565
264414.000002515664803.999970565264416.000002515664803.999970565
264418.000002515664803.999970565264420.000002515664803.999970565
264422.000002515664803.999970565264424.000002515664803.999970565
264426.000002515664803.999970565264428.000002515664803.999970565
264430.000002515664803.999970565264432.000002515664803.999970565
264434.000002515664803.999970565264436.000002515664803.999970565
264438.000002515664803.999970565264440.000002515664803.999970565
264442.000002515664803.999970565264444.000002515664803.999970565
264446.000002515664803.999970565264448.000002515664803.999970565
264450.000002515664803.999970565264452.000002515664803.999970565
264454.000002515664803.999970565264456.000002515664803.999970565
264458.000002515664803.999970565264460.000002515664803.999970565
264462.000002515664803.999970565264464.000002515664803.999970565
264466.000002515664803.999970565264468.000002515664803.999970565
264470.000002515664803.999970565264472.000002515664803.999970565
264474.000002515664803.999970565264476.000002515664803.999970565
264478.000002515664803.999970565264480.000002515664803.999970565
264482.000002515664803.999970565264484.000002515664803.999970565
264486.000002515664803.999970565263978.000002515664801.999970565
263980.000002515664801.999970565263982.000002515664801.999970565
263984.000002515664801.999970565263986.000002515664801.999970565
263988.000002515664801.999970565263990.000002515664801.999970565
263992.000002515664801.999970565263994.000002515664801.999970565
263996.000002515664801.999970565263998.000002515664801.999970565
264000.000002515664801.999970565264002.000002515664801.999970565
264004.000002515664801.999970565264006.000002515664801.999970565
264008.000002515664801.999970565264010.000002515664801.999970565
264012.000002515664801.999970565264014.000002515664801.999970565
264016.000002515664801.999970565264018.000002515664801.999970565
264020.000002515664801.999970565264022.000002515664801.999970565
264024.000002515664801.999970565264026.000002515664801.999970565
264028.000002515664801.999970565264030.000002515664801.999970565
264032.000002515664801.999970565264034.000002515664801.999970565
264036.000002515664801.999970565264038.000002515664801.999970565
264040.000002515664801.999970565264042.000002515664801.999970565
264044.000002515664801.999970565264046.000002515664801.999970565
264048.000002515664801.999970565264050.000002515664801.999970565
264052.000002515664801.999970565264054.000002515664801.999970565
264056.000002515664801.999970565264058.000002515664801.999970565
264060.000002515664801.999970565264062.000002515664801.999970565
264064.000002515664801.999970565264066.000002515664801.999970565
264068.000002515664801.999970565264070.000002515664801.999970565
264072.000002515664801.999970565264074.000002515664801.999970565
264076.000002515664801.999970565264078.000002515664801.999970565
264080.000002515664801.999970565264082.000002515664801.999970565
264084.000002515664801.999970565264086.000002515664801.999970565
264088.000002515664801.999970565264090.000002515664801.999970565
264092.000002515664801.999970565264094.000002515664801.999970565
264096.000002515664801.999970565264098.000002515664801.999970565
264100.000002515664801.999970565264102.000002515664801.999970565
264104.000002515664801.999970565264106.000002515664801.999970565
264108.000002515664801.999970565264110.000002515664801.999970565
264112.000002515664801.999970565264114.000002515664801.999970565
264116.000002515664801.999970565264118.000002515664801.999970565
264120.000002515664801.999970565264122.000002515664801.999970565
264124.000002515664801.999970565264126.000002515664801.999970565
264128.000002515664801.999970565264130.000002515664801.999970565
264132.000002515664801.999970565264134.000002515664801.999970565
264136.000002515664801.999970565264138.000002515664801.999970565
264140.000002515664801.999970565264142.000002515664801.999970565
264144.000002515664801.999970565264146.000002515664801.999970565
264148.000002515664801.999970565264150.000002515664801.999970565
264152.000002515664801.999970565264154.000002515664801.999970565
264156.000002515664801.999970565264158.000002515664801.999970565
264160.000002515664801.999970565264162.000002515664801.999970565
264164.000002515664801.999970565264166.000002515664801.999970565
264168.000002515664801.999970565264170.000002515664801.999970565
264172.000002515664801.999970565264174.000002515664801.999970565
264176.000002515664801.999970565264178.000002515664801.999970565
264180.000002515664801.999970565264182.000002515664801.999970565
264184.000002515664801.999970565264186.000002515664801.999970565
264188.000002515664801.999970565264190.000002515664801.999970565
264192.000002515664801.999970565264194.000002515664801.999970565
264196.000002515664801.999970565264198.000002515664801.999970565
264200.000002515664801.999970565264202.000002515664801.999970565
264204.000002515664801.999970565264206.000002515664801.999970565
264208.000002515664801.999970565264210.000002515664801.999970565
264212.000002515664801.999970565264214.000002515664801.999970565
264216.000002515664801.999970565264218.000002515664801.999970565
264220.000002515664801.999970565264222.000002515664801.999970565
264224.000002515664801.999970565264226.000002515664801.999970565
264228.000002515664801.999970565264230.000002515664801.999970565
264232.000002515664801.999970565264234.000002515664801.999970565
264236.000002515664801.999970565264238.000002515664801.999970565
264240.000002515664801.999970565264242.000002515664801.999970565
264244.000002515664801.999970565264246.000002515664801.999970565
264248.000002515664801.999970565264250.000002515664801.999970565